Circuit: * C:\Users\anjan\OneDrive\Documents\LTspiceXVII\Circuit par Charcha\OpAmpSlewRateCalculation.asc

Limiting rise time of source v3 to 1.9984e-016
Limiting fall time of source v3 to 1.9984e-016
Direct Newton iteration for .op point succeeded.
.step v3=13
Changing Tseed to 2.5e-010
.step v3=13.25
.step v3=13.5
.step v3=13.75
.step v3=14
.step v3=14.25
.step v3=14.5
.step v3=14.75
.step v3=15
.step v3=15.25
.step v3=15.5
.step v3=15.75
.step v3=16
.step v3=16.25
.step v3=16.5
.step v3=16.75
.step v3=17

Date: Sun Mar 07 19:14:19 2021
Total elapsed time: 0.613 seconds.

tnom = 27
temp = 27
method = modified trap
totiter = 1493
traniter = 1482
tranpoints = 471
accept = 456
rejected = 14
matrix size = 37
fillins = 28
solver = Normal
Matrix Compiler1: 3.05 KB object code size  0.6/0.3/[0.1]
Matrix Compiler2: 3.44 KB object code size  0.3/0.4/[0.2]

