Circuit: * C:\Users\anjan\OneDrive\Documents\LTspiceXVII\Circuit par Charcha\OpAmpDCOffsetDemo.asc

Direct Newton iteration for .op point succeeded.
.step resistor=100
.step resistor=200
.step resistor=300
.step resistor=400
.step resistor=500
.step resistor=600
.step resistor=700
.step resistor=800
.step resistor=900
.step resistor=1000

Date: Sun Mar 07 19:44:33 2021
Total elapsed time: 0.522 seconds.

tnom = 27
temp = 27
method = modified trap
totiter = 2101
traniter = 2090
tranpoints = 1046
accept = 1046
rejected = 0
matrix size = 36
fillins = 29
solver = Normal
Matrix Compiler1: 2.92 KB object code size  0.6/0.3/[0.1]
Matrix Compiler2: 3.40 KB object code size  0.3/0.4/[0.2]

